
This summary information was generated by ElastoDyn on 27-Apr-2026 at 13:06:40.


Turbine features:

            Upwind, 1-bladed rotor with rigid hub.
            The model has 3 of 19 DOFs active (enabled) at start-up.
 Disabled   Platform horizontal surge translation DOF 
 Disabled   Platform horizontal sway translation DOF 
 Disabled   Platform vertical heave translation DOF 
 Disabled   Platform roll tilt rotation DOF 
 Disabled   Platform pitch tilt rotation DOF 
 Disabled   Platform yaw rotation DOF 
 Disabled   1st tower fore-aft bending mode DOF 
 Disabled   1st tower side-to-side bending mode DOF 
 Enabled    2nd tower fore-aft bending mode DOF 
 Disabled   2nd tower side-to-side bending mode DOF 
 Disabled   Nacelle yaw DOF 
 Disabled   Rotor-furl DOF 
 Enabled    Variable speed generator DOF 
 Disabled   Drivetrain rotational-flexibility DOF 
 Disabled   Tail-furl DOF 
 Disabled   Blade pitch DOF of blade 1 
 Enabled    1st flapwise bending-mode DOF of blade 1 
 Disabled   1st edgewise bending-mode DOF of blade 1 
 Disabled   2nd flapwise bending-mode DOF of blade 1 


Time steps:

    Structural            (s)        0.00625000


Some calculated parameters:

    Hub-Height            (m)            90.000
    Flexible Tower Length (m)            87.600
    Flexible Blade Length (m)            61.500


Rotor mass properties:

    Rotor Mass            (kg)        57165.738
    Rotor Inertia         (kg-m^2)   637282.500
                                        Blade 1
                                        -------
    Mass                  (kg)          385.738
    Second Mass Moment    (kg-m^2)   485898.156
    First Mass Moment     (kg-m)      11861.438
    Center of Mass        (m)            30.750


Additional mass properties:

    Tower-top Mass        (kg)       297165.750
    Tower Mass            (kg)       347460.219
    Platform Mass         (kg)            0.000
    Mass Incl. Platform   (kg)       644626.000


Interpolated tower properties:

Node  TwFract   HNodes  DHNodes  TMassDen    FAStiff    SSStiff
 (-)      (-)      (m)      (m)    (kg/m)     (Nm^2)     (Nm^2)
   1    0.025    2.190    4.380  5501.260  5.945E+11  5.945E+11
   2    0.075    6.570    4.380  5322.040  5.547E+11  5.547E+11
   3    0.125   10.950    4.380  5145.763  5.169E+11  5.169E+11
   4    0.175   15.330    4.380  4972.427  4.812E+11  4.812E+11
   5    0.225   19.710    4.380  4802.037  4.472E+11  4.472E+11
   6    0.275   24.090    4.380  4634.593  4.152E+11  4.152E+11
   7    0.325   28.470    4.380  4470.090  3.848E+11  3.848E+11
   8    0.375   32.850    4.380  4308.530  3.562E+11  3.562E+11
   9    0.425   37.230    4.380  4149.915  3.292E+11  3.292E+11
  10    0.475   41.610    4.380  3994.245  3.037E+11  3.037E+11
  11    0.525   45.990    4.380  3841.515  2.798E+11  2.798E+11
  12    0.575   50.370    4.380  3691.725  2.573E+11  2.573E+11
  13    0.625   54.750    4.380  3544.880  2.361E+11  2.361E+11
  14    0.675   59.130    4.380  3400.980  2.163E+11  2.163E+11
  15    0.725   63.510    4.380  3260.025  1.978E+11  1.978E+11
  16    0.775   67.890    4.380  3122.015  1.805E+11  1.805E+11
  17    0.825   72.270    4.380  2986.945  1.643E+11  1.643E+11
  18    0.875   76.650    4.380  2854.815  1.493E+11  1.493E+11
  19    0.925   81.030    4.380  2725.630  1.353E+11  1.353E+11
  20    0.975   85.410    4.380  2599.390  1.223E+11  1.223E+11


Interpolated blade 1 properties:

Node  BlFract   RNodes  DRNodes  StrcTwst  BMassDen    FlpStff    EdgStff
 (-)      (-)      (m)      (m)     (deg)    (kg/m)     (Nm^2)     (Nm^2)
   1    0.029    3.309    3.618     0.000     6.272  1.811E+10  1.811E+10
   2    0.088    6.926    3.618     0.000     6.272  1.811E+10  1.811E+10
   3    0.147   10.544    3.618     0.000     6.272  1.811E+10  1.811E+10
   4    0.206   14.162    3.618     0.000     6.272  1.811E+10  1.811E+10
   5    0.265   17.779    3.618     0.000     6.272  1.811E+10  1.811E+10
   6    0.324   21.397    3.618     0.000     6.272  1.811E+10  1.811E+10
   7    0.382   25.015    3.618     0.000     6.272  1.811E+10  1.811E+10
   8    0.441   28.632    3.618     0.000     6.272  1.811E+10  1.811E+10
   9    0.500   32.250    3.618     0.000     6.272  1.811E+10  1.811E+10
  10    0.559   35.868    3.618     0.000     6.272  1.811E+10  1.811E+10
  11    0.618   39.485    3.618     0.000     6.272  1.811E+10  1.811E+10
  12    0.676   43.103    3.618     0.000     6.272  1.811E+10  1.811E+10
  13    0.735   46.721    3.618     0.000     6.272  1.811E+10  1.811E+10
  14    0.794   50.338    3.618     0.000     6.272  1.811E+10  1.811E+10
  15    0.853   53.956    3.618     0.000     6.272  1.811E+10  1.811E+10
  16    0.912   57.574    3.618     0.000     6.272  1.811E+10  1.811E+10
  17    0.971   61.191    3.618     0.000     6.272  1.811E+10  1.811E+10


Requested Outputs:


 Col   Parameter            Units               
 ---   ---------------      ---------------     
   0   Time                 (s)                 
   1   Q_B1F1               (m)                 
   2   Q_GeAz               (rad)               
   3   Q_TFA1               (m)                 
   4   Q_TSS1               (m)                 
   5   Q_TFA2               (m)                 
   6   Q_TSS2               (m)                 
   7   OoPDefl1             (m)                 
   8   IPDefl1              (m)                 
   9   TwstDefl1            (deg)               
  10   BldPitch1            (deg)               
  11   Azimuth              (deg)               
  12   RotSpeed             (rpm)               
  13   GenSpeed             (rpm)               
  14   TTDspFA              (m)                 
  15   TTDspSS              (m)                 
  16   TTDspTwst            (deg)               
  17   Spn2MLxb1            (kN-m)              
  18   Spn2MLyb1            (kN-m)              
  19   RootFxb1             (kN)                
  20   RootFyb1             (kN)                
  21   RootFzb1             (kN)                
  22   RootMxb1             (kN-m)              
  23   RootMyb1             (kN-m)              
  24   RootMzb1             (kN-m)              
  25   RotTorq              (kN-m)              
  26   LSSGagMya            (kN-m)              
  27   LSSGagMza            (kN-m)              
  28   YawBrFxp             (kN)                
  29   YawBrFyp             (kN)                
  30   YawBrFzp             (kN)                
  31   YawBrMxp             (kN-m)              
  32   YawBrMyp             (kN-m)              
  33   YawBrMzp             (kN-m)              
  34   TwrBsFxt             (kN)                
  35   TwrBsFyt             (kN)                
  36   TwrBsFzt             (kN)                
  37   TwrBsMxt             (kN-m)              
  38   TwrBsMyt             (kN-m)              
  39   TwrBsMzt             (kN-m)              


  Requested Output Channels at each blade station:
 Col   Parameter            Units               
 ---   ---------------      ---------------     
